**
** ABAQUS Input Deck Generated by HyperMesh Version  : 2022.0.0.33
** Generated using HyperMesh-Abaqus Template Version : 2022.0.0.33
** Generated on 06-30-2026 at 09:31:58
**
**   Template:  ABAQUS/STANDARD 3D
**
*HEADING
No heading defined for this deck
*PREPRINT,CONTACT=NO,ECHO=NO,HISTORY=NO,MODEL=NO
*NODE
         1,  1.0            ,  1.0            ,  1.0            
         2,  1.0            ,  0.0            ,  1.0            
         3,  1.0            ,  1.0            ,  0.0            
         4,  1.0            ,  0.0            ,  0.0            
         5,  0.0            ,  1.0            ,  1.0            
         6,  0.0            ,  0.0            ,  1.0            
         7,  0.0            ,  1.0            ,  0.0            
         8,  0.0            ,  0.0            ,  0.0            
**HW_COMPONENT     ID=2     COLOR=3     NAME=Part-1-1_Set-1     PROPERTY=Part-1-1_Set-1
*ELEMENT,TYPE=C3D8R
         1,         5,         6,         8,         7,         1,         2,         4,         3
*ELSET, ELSET=HMprop_Part-1-1_Set-1
         1
**HM_set_by_property     3          2
*SOLID SECTION, ELSET=HMprop_Part-1-1_Set-1, CONTROLS = EC-1, MATERIAL=Material-1
,
**HW_FORMULA_SET     ID=2
*NSET, NSET=Part-1-1_Set-1, GENERATE
         1,         8,         1
**HW_FORMULA_SET     ID=6
*NSET, NSET=Part-1_Part-1-1-1
         2,         4,         6,         8
** Section: Section-1
**  
**
** ASSEMBLY
**
**  
**  
**HW_FORMULA_SET     ID=4
*NSET, NSET=fix
Part-1_Part-1-1-1,
**HW_FORMULA_SET     ID=7
*NSET, NSET=Part-1_Part-1-1-2
         1,         3,         5,         7
**HW_FORMULA_SET     ID=5
*NSET, NSET=load
Part-1_Part-1-1-2,
**HW_SET     ID=1
*ELSET, ELSET=Part-1-1_Set-1
         1,
**HW_SET     ID=3
*ELSET, ELSET=fix
         1,
** 
** MATERIALS
** 
**HMNAME MATS          1 Material-1     4
*MATERIAL, NAME=Material-1
*DENSITY
1000.0    ,0.0       
*ELASTIC, TYPE = ISOTROPIC
21000000.0,0.3       ,0.0       
**HMNAME PROPERTY          1 EC-1
** 
** ELEMENT CONTROLS
** 
*SECTION CONTROLS, NAME = EC-1, HOURGLASS = ENHANCED, ELEMENT DELETION = NO
1.0       ,1.0       
*AMPLITUDE, NAME =Amp-1
0.0       ,0.0       ,1.0       ,1.0       
**HMNAME CURVE          1 HM_Curve_Title_1
**HMNAME LOADSTEP          1 Step-1
*STEP, name=whatever
*MATRIX GENERATE, MASS, STIFFNESS
*MATRIX OUTPUT, MASS, STIFFNESS, FORMAT=MATRIX INPUT
*END STEP
*STEP, NAME = Step-1, NLGEOM = NO
*STATIC
1.0       ,1.0       ,1.0000E-05,1.0       
**HWNAME LOADCOL          1 HM_Load_Cols_1
**HWCOLOR LOADCOL          1     3
*BOUNDARY
fix,1,3,0.0
load,2, ,0.0
load,3, ,0.0
*CLOAD, AMPLITUDE = Amp-1
load,1,1000.0          
*OUTPUT, FIELD, VARIABLE = ALL
*OUTPUT, HISTORY, VARIABLE = ALL
*RESTART, WRITE, FREQUENCY =     0
*END STEP
*****
**<?xml version="1.0" encoding="utf-8"?>
**<Altair_XML_Export>
**    <UDM xmlns:SOAP-ENV="http://schemas.xmlsoap.org/soap/envelope/" xmlns:SOAP-ENC="http://schemas.xmlsoap.org/soap/encoding/" xmlns:xsi="http://www.w3.org/2001/XMLSchema-instance" xmlns:xsd="http://www.w3.org/2001/XMLSchema" xmlns:udmcfg="http://schemas.altair.com/AltairUDMRuntimeConfig" xmlns:udmxml="http://schemas.altair.com/AltairUDM" xmlns:importrules="http://schemas.altair.com/hsm/importru
**        <udmxml:EntityCollection xsi:type="udmxml:EntityCollectionCType">
**            <udmxml:Entity xsi:type="udmxml:AssemblyDMCType" displayName="HW_Assembly" contentDefinitionType="UDMAssemblyDM" id="104eaa1a6a2a0c41ac6affb0fe822460:0">
**                <udmxml:Children>
**                    <udmxml:Child xsi:type="udmxml:ChildCType" refId="7b3d35e0b2bfa54c995f177fd5ec1d8d:0" timestamp="1782783063475040" childFlags="0" groupName="boas" contentDefinitionType="UDMBOA"/>
**                </udmxml:Children>
**            </udmxml:Entity>
**            <udmxml:Entity xsi:type="udmxml:BOACType" displayName="hm0" contentDefinitionType="UDMBOA" id="7b3d35e0b2bfa54c995f177fd5ec1d8d:0">
**                <udmxml:Children>
**                    <udmxml:Child xsi:type="udmxml:ChildCType" refId="515890328170824b99c01c32443ad62b:0" timestamp="1782783063603813" childFlags="0" groupName="parts" contentDefinitionType="UDMPartProtoOcc">
**                        <AdditionalIdList xsi:type="udmxml:AdditionalIdCType" xmlns="http://schemas.altair.com/AltairUDM" keyValue="Model" keyName="displayname" contentDefinitionType="UDMPartProtoOcc"/>
**                    </udmxml:Child>
**                </udmxml:Children>
**            </udmxml:Entity>
**            <udmxml:Entity xsi:type="udmxml:PartCType" displayName="Part-1.p" contentDefinitionType="UDMPartProto" id="38d4026517d3534682429d70139b7006:0"/>
**            <udmxml:Entity xsi:type="udmxml:PartCType" displayName="Assembly.p" contentDefinitionType="UDMPartProto" id="1e4e7319bd4e79468b3e0fd1502bf919:0">
**                <udmxml:Children>
**                    <udmxml:Child xsi:type="udmxml:ChildCType" refId="32e8314b38b043419847eb71f471debe:0" timestamp="1782783092225603" childFlags="0" groupName="partprotoinst" contentDefinitionType="UDMPartProtoInst"/>
**                </udmxml:Children>
**            </udmxml:Entity>
**            <udmxml:Entity xsi:type="udmxml:PartCType" displayName="Model.p" contentDefinitionType="UDMPartProto" id="97e557b305ea694480b96e0b7ab3ec70:0">
**                <udmxml:Children>
**                    <udmxml:Child xsi:type="udmxml:ChildCType" refId="e1d3ab819b98164c9272f032f9474199:0" timestamp="1782783092225603" childFlags="0" groupName="partprotoinst" contentDefinitionType="UDMPartProtoInst"/>
**                </udmxml:Children>
**            </udmxml:Entity>
**            <udmxml:Entity xsi:type="udmxml:PartCType" displayName="Part-1-1" contentDefinitionType="UDMPartProtoInst" id="32e8314b38b043419847eb71f471debe:0">
**                <udmxml:Attributes>
**                    <udmxml:Attribute xsi:type="udmxml:AttributeCType" valueutf8="1 0 0 0 0 1 0 0 0 0 1 0 0 0 0 1" type="string" name="trfmtx" displayName="Transformation matrix">1 0 0 0 0 1 0 0 0 0 1 0 0 0 0 1</udmxml:Attribute>
**                    <udmxml:Attribute xsi:type="udmxml:AttributeCType" valueutf8="true" type="boolean" name="trfmtxisrel" displayName="Is matrix relative?">true</udmxml:Attribute>
**                </udmxml:Attributes>
**                <udmxml:Children>
**                    <udmxml:Child xsi:type="udmxml:ChildCType" refId="38d4026517d3534682429d70139b7006:0" timestamp="1782783092225603" childFlags="0" groupName="partprotos" contentDefinitionType="UDMPartProto"/>
**                </udmxml:Children>
**                <TransformationMatrix xsi:type="udmxml:TransformationMatrixCType" xmlns="http://schemas.altair.com/AltairUDM" transformationMatrixIsRelative="true" transformationMatrix="1 0 0 0 0 1 0 0 0 0 1 0 0 0 0 1"/>
**            </udmxml:Entity>
**            <udmxml:Entity xsi:type="udmxml:PartCType" displayName="Assembly" contentDefinitionType="UDMPartProtoInst" id="e1d3ab819b98164c9272f032f9474199:0">
**                <udmxml:Attributes>
**                    <udmxml:Attribute xsi:type="udmxml:AttributeCType" valueutf8="1 0 0 0 0 1 0 0 0 0 1 0 0 0 0 1" type="string" name="trfmtx" displayName="Transformation matrix">1 0 0 0 0 1 0 0 0 0 1 0 0 0 0 1</udmxml:Attribute>
**                    <udmxml:Attribute xsi:type="udmxml:AttributeCType" valueutf8="true" type="boolean" name="trfmtxisrel" displayName="Is matrix relative?">true</udmxml:Attribute>
**                </udmxml:Attributes>
**                <udmxml:Children>
**                    <udmxml:Child xsi:type="udmxml:ChildCType" refId="1e4e7319bd4e79468b3e0fd1502bf919:0" timestamp="1782783092225603" childFlags="0" groupName="partprotos" contentDefinitionType="UDMPartProto"/>
**                </udmxml:Children>
**                <TransformationMatrix xsi:type="udmxml:TransformationMatrixCType" xmlns="http://schemas.altair.com/AltairUDM" transformationMatrixIsRelative="true" transformationMatrix="1 0 0 0 0 1 0 0 0 0 1 0 0 0 0 1"/>
**            </udmxml:Entity>
**            <udmxml:Entity xsi:type="udmxml:PartCType" protoInstanceRefId="32e8314b38b043419847eb71f471debe:0" prototypeRefId="38d4026517d3534682429d70139b7006:0" displayName="Part-1-1" contentDefinitionType="UDMPartProtoOcc" id="c8bce82dded23740bd3ac699e299d646:0">
**                <udmxml:Attributes>
**                    <udmxml:Attribute xsi:type="udmxml:AttributeCType" valueutf8="38d4026517d3534682429d70139b7006" type="string" name="protoref" displayName="Prototype reference">38d4026517d3534682429d70139b7006</udmxml:Attribute>
**                    <udmxml:Attribute xsi:type="udmxml:AttributeCType" valueutf8="32e8314b38b043419847eb71f471debe" type="string" name="protoinstanceref" displayName="Prototype Instance reference">32e8314b38b043419847eb71f471debe</udmxml:Attribute>
**                    <udmxml:Attribute xsi:type="udmxml:AttributeCType" valueutf8="Components(2)" type="string" name="EntitySelectionExp">Components(2)</udmxml:Attribute>
**                    <udmxml:Attribute xsi:type="udmxml:AttributeCType" valueutf8="2" type="string" name="SelectionExp">2</udmxml:Attribute>
**                    <udmxml:Attribute xsi:type="udmxml:AttributeCType" valueutf8="6" type="string" name="UdmxmlString_HmOccurrenceColor">6</udmxml:Attribute>
**                    <udmxml:Attribute xsi:type="udmxml:AttributeCType" valueutf8="6" type="string" name="UdmxmlString_HmOccurrenceId">6</udmxml:Attribute>
**                    <udmxml:Attribute xsi:type="udmxml:AttributeCType" valueutf8="65535" type="string" name="UdmxmlString_HmOccurrenceTrueColor">65535</udmxml:Attribute>
**                </udmxml:Attributes>
**            </udmxml:Entity>
**            <udmxml:Entity xsi:type="udmxml:PartCType" protoInstanceRefId="e1d3ab819b98164c9272f032f9474199:0" prototypeRefId="1e4e7319bd4e79468b3e0fd1502bf919:0" displayName="Assembly" contentDefinitionType="UDMPartProtoOcc" id="69ac41d50d1c8946b31825f516a4dc14:0">
**                <udmxml:Attributes>
**                    <udmxml:Attribute xsi:type="udmxml:AttributeCType" valueutf8="1e4e7319bd4e79468b3e0fd1502bf919" type="string" name="protoref" displayName="Prototype reference">1e4e7319bd4e79468b3e0fd1502bf919</udmxml:Attribute>
**                    <udmxml:Attribute xsi:type="udmxml:AttributeCType" valueutf8="e1d3ab819b98164c9272f032f9474199" type="string" name="protoinstanceref" displayName="Prototype Instance reference">e1d3ab819b98164c9272f032f9474199</udmxml:Attribute>
**                    <udmxml:Attribute xsi:type="udmxml:AttributeCType" valueutf8="5" type="string" name="UdmxmlString_HmOccurrenceColor">5</udmxml:Attribute>
**                    <udmxml:Attribute xsi:type="udmxml:AttributeCType" valueutf8="5" type="string" name="UdmxmlString_HmOccurrenceId">5</udmxml:Attribute>
**                    <udmxml:Attribute xsi:type="udmxml:AttributeCType" valueutf8="16711680" type="string" name="UdmxmlString_HmOccurrenceTrueColor">16711680</udmxml:Attribute>
**                </udmxml:Attributes>
**                <udmxml:Children>
**                    <udmxml:Child xsi:type="udmxml:ChildCType" refId="c8bce82dded23740bd3ac699e299d646:0" timestamp="1782783092226601" childFlags="0" groupName="partprotooccs" contentDefinitionType="UDMPartProtoOcc">
**                        <AdditionalIdList xsi:type="udmxml:AdditionalIdCType" xmlns="http://schemas.altair.com/AltairUDM" keyValue="Part-1-1" keyName="displayname" contentDefinitionType="UDMPartProtoOcc"/>
**                    </udmxml:Child>
**                </udmxml:Children>
**            </udmxml:Entity>
**            <udmxml:Entity xsi:type="udmxml:PartCType" prototypeRefId="97e557b305ea694480b96e0b7ab3ec70:0" displayName="Model" contentDefinitionType="UDMPartProtoOcc" id="515890328170824b99c01c32443ad62b:0">
**                <udmxml:Attributes>
**                    <udmxml:Attribute xsi:type="udmxml:AttributeCType" valueutf8="97e557b305ea694480b96e0b7ab3ec70" type="string" name="protoref" displayName="Prototype reference">97e557b305ea694480b96e0b7ab3ec70</udmxml:Attribute>
**                    <udmxml:Attribute xsi:type="udmxml:AttributeCType" valueutf8="1" type="string" name="UdmxmlString_HmOccurrenceColor">1</udmxml:Attribute>
**                    <udmxml:Attribute xsi:type="udmxml:AttributeCType" valueutf8="2" type="string" name="UdmxmlString_HmOccurrenceId">2</udmxml:Attribute>
**                    <udmxml:Attribute xsi:type="udmxml:AttributeCType" valueutf8="65793" type="string" name="UdmxmlString_HmOccurrenceTrueColor">65793</udmxml:Attribute>
**                    <udmxml:Attribute xsi:type="udmxml:AttributeCType" valueutf8="true" type="boolean" name="pseudo root">true</udmxml:Attribute>
**                </udmxml:Attributes>
**                <udmxml:Children>
**                    <udmxml:Child xsi:type="udmxml:ChildCType" refId="69ac41d50d1c8946b31825f516a4dc14:0" timestamp="1782783092226601" childFlags="0" groupName="partprotooccs" contentDefinitionType="UDMPartProtoOcc">
**                        <AdditionalIdList xsi:type="udmxml:AdditionalIdCType" xmlns="http://schemas.altair.com/AltairUDM" keyValue="Assembly" keyName="displayname" contentDefinitionType="UDMPartProtoOcc"/>
**                    </udmxml:Child>
**                </udmxml:Children>
**            </udmxml:Entity>
**        </udmxml:EntityCollection>
**        <udmxml:RelationCollection xsi:type="udmxml:RelationCollectionCType"/>
**        <udmxml:RootEntities xsi:type="udmxml:RootEntityCollectionCType">
**            <udmxml:ItemId>104eaa1a6a2a0c41ac6affb0fe822460:0</udmxml:ItemId>
**        </udmxml:RootEntities>
**    </UDM>
**</Altair_XML_Export>
