**
** ABAQUS Input Deck Generated by HyperMesh Version  : 2022.0.0.33
** Generated using HyperMesh-Abaqus Template Version : 2022.0.0.33
** Generated on 06-29-2026 at 09:31:39
**
**   Template:  ABAQUS/STANDARD 3D
**
*HEADING
No heading defined for this deck
*PREPRINT,CONTACT=NO,ECHO=NO,HISTORY=NO,MODEL=NO
*NODE
         1,  1.0            ,  1.0            ,  1.0            
         2,  1.0            ,  0.0            ,  1.0            
         3,  1.0            ,  1.0            ,  0.0            
         4,  1.0            ,  0.0            ,  0.0            
         5,  0.0            ,  1.0            ,  1.0            
         6,  0.0            ,  0.0            ,  1.0            
         7,  0.0            ,  1.0            ,  0.0            
         8,  0.0            ,  0.0            ,  0.0            
**HW_COMPONENT     ID=2     COLOR=3     NAME=Part-1-1_Set-1     PROPERTY=Part-1-1_Set-1
*ELEMENT,TYPE=C3D8R
         1,         5,         6,         8,         7,         1,         2,         4,         3
*ELSET, ELSET=HMprop_Part-1-1_Set-1
         1
**HM_set_by_property     3          2
*SOLID SECTION, ELSET=HMprop_Part-1-1_Set-1, CONTROLS = EC-1, MATERIAL=Material-1
,
**HW_FORMULA_SET     ID=2
*NSET, NSET=Part-1-1_Set-1, GENERATE
         1,         8,         1
** Section: Section-1
**  
**
** ASSEMBLY
**
**  
**  
**HW_SET     ID=4
*NSET, NSET=Set-3
         6,
**HW_SET     ID=5
*NSET, NSET=Set-4
         4,
** Suppress the spurious transverse hourglass zero-energy mode.
** The 6 RBM constraints (fix u2 + Set-3 u1 + Set-4 u3) leave one
** uncontrolled hourglass mode -> constrained K is singular (cond~1e18),
** making transverse u1/u3 undetermined. node 8 (origin) has u1=0 in the
** physical Poisson solution, so pinning it removes the mode without bias.
*NSET, NSET=hgfix
         8,
**HW_FORMULA_SET     ID=8
*NSET, NSET=Part-1_Part-1-1-1
         2,         4,         6,         8
**HW_FORMULA_SET     ID=6
*NSET, NSET=fix
Part-1_Part-1-1-1,
**HW_FORMULA_SET     ID=9
*NSET, NSET=Part-1_Part-1-1-2
         1,         3,         5,         7
**HW_FORMULA_SET     ID=7
*NSET, NSET=load
Part-1_Part-1-1-2,
**HW_SET     ID=1
*ELSET, ELSET=Part-1-1_Set-1
         1,
**HW_SET     ID=3
*ELSET, ELSET=fix
         1,
** 
** MATERIALS
** 
**HMNAME MATS          1 Material-1     4
*MATERIAL, NAME=Material-1
*DENSITY
1000.0    ,0.0       
*ELASTIC, TYPE = ISOTROPIC
21000000.0,0.3       ,0.0       
**HMNAME PROPERTY          1 EC-1
** 
** ELEMENT CONTROLS
** 
*SECTION CONTROLS, NAME = EC-1, HOURGLASS = ENHANCED, ELEMENT DELETION = NO
1.0       ,1.0       
*AMPLITUDE, NAME =Amp-1
0.0       ,0.0       ,1.0       ,1.0       
**HMNAME CURVE          1 HM_Curve_Title_1
**HMNAME LOADSTEP          1 Step-1
*STEP, name=whatever
*MATRIX GENERATE, MASS, STIFFNESS
*MATRIX OUTPUT, MASS, STIFFNESS, FORMAT=MATRIX INPUT
*END STEP
*STEP, NAME = Step-1, NLGEOM = NO
*STATIC
1.0       ,1.0       ,1.0000E-05,1.0       
**HWNAME LOADCOL          1 HM_Load_Cols_1
**HWCOLOR LOADCOL          1     3
*BOUNDARY
fix,2, ,0.0
**HWNAME LOADCOL          2 HM_Load_Cols_2
**HWCOLOR LOADCOL          2     4
*BOUNDARY
Set-3,1, ,0.0
**HWNAME LOADCOL          3 HM_Load_Cols_3
**HWCOLOR LOADCOL          3     5
*BOUNDARY
Set-4,3, ,0.0
** Pin spurious transverse hourglass mode (see hgfix NSET definition)
*BOUNDARY
hgfix,1, ,0.0
*CLOAD, AMPLITUDE = Amp-1
load,2,100.0          
*OUTPUT, FIELD, VARIABLE = PRESELECT
*OUTPUT, HISTORY, VARIABLE = PRESELECT
*RESTART, WRITE, FREQUENCY =     0
*END STEP
*****
**<?xml version="1.0" encoding="utf-8"?>
**<Altair_XML_Export>
**    <UDM xmlns:SOAP-ENV="http://schemas.xmlsoap.org/soap/envelope/" xmlns:SOAP-ENC="http://schemas.xmlsoap.org/soap/encoding/" xmlns:xsi="http://www.w3.org/2001/XMLSchema-instance" xmlns:xsd="http://www.w3.org/2001/XMLSchema" xmlns:udmcfg="http://schemas.altair.com/AltairUDMRuntimeConfig" xmlns:udmxml="http://schemas.altair.com/AltairUDM" xmlns:importrules="http://schemas.altair.com/hsm/importru
**        <udmxml:EntityCollection xsi:type="udmxml:EntityCollectionCType">
**            <udmxml:Entity xsi:type="udmxml:AssemblyDMCType" displayName="HW_Assembly" contentDefinitionType="UDMAssemblyDM" id="79405c8a0857f4419858702b3aba48b9:0">
**                <udmxml:Children>
**                    <udmxml:Child xsi:type="udmxml:ChildCType" refId="052b5643e2e0a64b922289ac529336f0:0" timestamp="1782696660753835" childFlags="0" groupName="boas" contentDefinitionType="UDMBOA"/>
**                </udmxml:Children>
**            </udmxml:Entity>
**            <udmxml:Entity xsi:type="udmxml:BOACType" displayName="hm0" contentDefinitionType="UDMBOA" id="052b5643e2e0a64b922289ac529336f0:0">
**                <udmxml:Children>
**                    <udmxml:Child xsi:type="udmxml:ChildCType" refId="7a78efd8b79d1d44afbd909c22651af8:0" timestamp="1782696660890555" childFlags="0" groupName="parts" contentDefinitionType="UDMPartProtoOcc">
**                        <AdditionalIdList xsi:type="udmxml:AdditionalIdCType" xmlns="http://schemas.altair.com/AltairUDM" keyValue="Model" keyName="displayname" contentDefinitionType="UDMPartProtoOcc"/>
**                    </udmxml:Child>
**                </udmxml:Children>
**            </udmxml:Entity>
**            <udmxml:Entity xsi:type="udmxml:PartCType" displayName="Part-1.p" contentDefinitionType="UDMPartProto" id="f071aff1ac9a1e48aec02b3f5a6125ff:0"/>
**            <udmxml:Entity xsi:type="udmxml:PartCType" displayName="Assembly.p" contentDefinitionType="UDMPartProto" id="e3fcf9198bdf3044bb9f6b6002e5656b:0">
**                <udmxml:Children>
**                    <udmxml:Child xsi:type="udmxml:ChildCType" refId="c8d2a66e1903834c80bea879f5376b82:0" timestamp="1782696688574019" childFlags="0" groupName="partprotoinst" contentDefinitionType="UDMPartProtoInst"/>
**                </udmxml:Children>
**            </udmxml:Entity>
**            <udmxml:Entity xsi:type="udmxml:PartCType" displayName="Model.p" contentDefinitionType="UDMPartProto" id="eddb95c7333d29409e6177e95d81e9a8:0">
**                <udmxml:Children>
**                    <udmxml:Child xsi:type="udmxml:ChildCType" refId="2205e24a9681284b87fe4eebe6594fcc:0" timestamp="1782696688574019" childFlags="0" groupName="partprotoinst" contentDefinitionType="UDMPartProtoInst"/>
**                </udmxml:Children>
**            </udmxml:Entity>
**            <udmxml:Entity xsi:type="udmxml:PartCType" displayName="Part-1-1" contentDefinitionType="UDMPartProtoInst" id="c8d2a66e1903834c80bea879f5376b82:0">
**                <udmxml:Attributes>
**                    <udmxml:Attribute xsi:type="udmxml:AttributeCType" valueutf8="1 0 0 0 0 1 0 0 0 0 1 0 0 0 0 1" type="string" name="trfmtx" displayName="Transformation matrix">1 0 0 0 0 1 0 0 0 0 1 0 0 0 0 1</udmxml:Attribute>
**                    <udmxml:Attribute xsi:type="udmxml:AttributeCType" valueutf8="true" type="boolean" name="trfmtxisrel" displayName="Is matrix relative?">true</udmxml:Attribute>
**                </udmxml:Attributes>
**                <udmxml:Children>
**                    <udmxml:Child xsi:type="udmxml:ChildCType" refId="f071aff1ac9a1e48aec02b3f5a6125ff:0" timestamp="1782696688574019" childFlags="0" groupName="partprotos" contentDefinitionType="UDMPartProto"/>
**                </udmxml:Children>
**                <TransformationMatrix xsi:type="udmxml:TransformationMatrixCType" xmlns="http://schemas.altair.com/AltairUDM" transformationMatrixIsRelative="true" transformationMatrix="1 0 0 0 0 1 0 0 0 0 1 0 0 0 0 1"/>
**            </udmxml:Entity>
**            <udmxml:Entity xsi:type="udmxml:PartCType" displayName="Assembly" contentDefinitionType="UDMPartProtoInst" id="2205e24a9681284b87fe4eebe6594fcc:0">
**                <udmxml:Attributes>
**                    <udmxml:Attribute xsi:type="udmxml:AttributeCType" valueutf8="1 0 0 0 0 1 0 0 0 0 1 0 0 0 0 1" type="string" name="trfmtx" displayName="Transformation matrix">1 0 0 0 0 1 0 0 0 0 1 0 0 0 0 1</udmxml:Attribute>
**                    <udmxml:Attribute xsi:type="udmxml:AttributeCType" valueutf8="true" type="boolean" name="trfmtxisrel" displayName="Is matrix relative?">true</udmxml:Attribute>
**                </udmxml:Attributes>
**                <udmxml:Children>
**                    <udmxml:Child xsi:type="udmxml:ChildCType" refId="e3fcf9198bdf3044bb9f6b6002e5656b:0" timestamp="1782696688574019" childFlags="0" groupName="partprotos" contentDefinitionType="UDMPartProto"/>
**                </udmxml:Children>
**                <TransformationMatrix xsi:type="udmxml:TransformationMatrixCType" xmlns="http://schemas.altair.com/AltairUDM" transformationMatrixIsRelative="true" transformationMatrix="1 0 0 0 0 1 0 0 0 0 1 0 0 0 0 1"/>
**            </udmxml:Entity>
**            <udmxml:Entity xsi:type="udmxml:PartCType" protoInstanceRefId="c8d2a66e1903834c80bea879f5376b82:0" prototypeRefId="f071aff1ac9a1e48aec02b3f5a6125ff:0" displayName="Part-1-1" contentDefinitionType="UDMPartProtoOcc" id="424ac4c25db05f4c89028234060e4bfe:0">
**                <udmxml:Attributes>
**                    <udmxml:Attribute xsi:type="udmxml:AttributeCType" valueutf8="f071aff1ac9a1e48aec02b3f5a6125ff" type="string" name="protoref" displayName="Prototype reference">f071aff1ac9a1e48aec02b3f5a6125ff</udmxml:Attribute>
**                    <udmxml:Attribute xsi:type="udmxml:AttributeCType" valueutf8="c8d2a66e1903834c80bea879f5376b82" type="string" name="protoinstanceref" displayName="Prototype Instance reference">c8d2a66e1903834c80bea879f5376b82</udmxml:Attribute>
**                    <udmxml:Attribute xsi:type="udmxml:AttributeCType" valueutf8="Components(2)" type="string" name="EntitySelectionExp">Components(2)</udmxml:Attribute>
**                    <udmxml:Attribute xsi:type="udmxml:AttributeCType" valueutf8="2" type="string" name="SelectionExp">2</udmxml:Attribute>
**                    <udmxml:Attribute xsi:type="udmxml:AttributeCType" valueutf8="6" type="string" name="UdmxmlString_HmOccurrenceColor">6</udmxml:Attribute>
**                    <udmxml:Attribute xsi:type="udmxml:AttributeCType" valueutf8="6" type="string" name="UdmxmlString_HmOccurrenceId">6</udmxml:Attribute>
**                    <udmxml:Attribute xsi:type="udmxml:AttributeCType" valueutf8="65535" type="string" name="UdmxmlString_HmOccurrenceTrueColor">65535</udmxml:Attribute>
**                </udmxml:Attributes>
**            </udmxml:Entity>
**            <udmxml:Entity xsi:type="udmxml:PartCType" protoInstanceRefId="2205e24a9681284b87fe4eebe6594fcc:0" prototypeRefId="e3fcf9198bdf3044bb9f6b6002e5656b:0" displayName="Assembly" contentDefinitionType="UDMPartProtoOcc" id="4a59deb4063e23418e0da06a0e9e7c52:0">
**                <udmxml:Attributes>
**                    <udmxml:Attribute xsi:type="udmxml:AttributeCType" valueutf8="e3fcf9198bdf3044bb9f6b6002e5656b" type="string" name="protoref" displayName="Prototype reference">e3fcf9198bdf3044bb9f6b6002e5656b</udmxml:Attribute>
**                    <udmxml:Attribute xsi:type="udmxml:AttributeCType" valueutf8="2205e24a9681284b87fe4eebe6594fcc" type="string" name="protoinstanceref" displayName="Prototype Instance reference">2205e24a9681284b87fe4eebe6594fcc</udmxml:Attribute>
**                    <udmxml:Attribute xsi:type="udmxml:AttributeCType" valueutf8="5" type="string" name="UdmxmlString_HmOccurrenceColor">5</udmxml:Attribute>
**                    <udmxml:Attribute xsi:type="udmxml:AttributeCType" valueutf8="5" type="string" name="UdmxmlString_HmOccurrenceId">5</udmxml:Attribute>
**                    <udmxml:Attribute xsi:type="udmxml:AttributeCType" valueutf8="16711680" type="string" name="UdmxmlString_HmOccurrenceTrueColor">16711680</udmxml:Attribute>
**                </udmxml:Attributes>
**                <udmxml:Children>
**                    <udmxml:Child xsi:type="udmxml:ChildCType" refId="424ac4c25db05f4c89028234060e4bfe:0" timestamp="1782696688576530" childFlags="0" groupName="partprotooccs" contentDefinitionType="UDMPartProtoOcc">
**                        <AdditionalIdList xsi:type="udmxml:AdditionalIdCType" xmlns="http://schemas.altair.com/AltairUDM" keyValue="Part-1-1" keyName="displayname" contentDefinitionType="UDMPartProtoOcc"/>
**                    </udmxml:Child>
**                </udmxml:Children>
**            </udmxml:Entity>
**            <udmxml:Entity xsi:type="udmxml:PartCType" prototypeRefId="eddb95c7333d29409e6177e95d81e9a8:0" displayName="Model" contentDefinitionType="UDMPartProtoOcc" id="7a78efd8b79d1d44afbd909c22651af8:0">
**                <udmxml:Attributes>
**                    <udmxml:Attribute xsi:type="udmxml:AttributeCType" valueutf8="eddb95c7333d29409e6177e95d81e9a8" type="string" name="protoref" displayName="Prototype reference">eddb95c7333d29409e6177e95d81e9a8</udmxml:Attribute>
**                    <udmxml:Attribute xsi:type="udmxml:AttributeCType" valueutf8="1" type="string" name="UdmxmlString_HmOccurrenceColor">1</udmxml:Attribute>
**                    <udmxml:Attribute xsi:type="udmxml:AttributeCType" valueutf8="2" type="string" name="UdmxmlString_HmOccurrenceId">2</udmxml:Attribute>
**                    <udmxml:Attribute xsi:type="udmxml:AttributeCType" valueutf8="65793" type="string" name="UdmxmlString_HmOccurrenceTrueColor">65793</udmxml:Attribute>
**                    <udmxml:Attribute xsi:type="udmxml:AttributeCType" valueutf8="true" type="boolean" name="pseudo root">true</udmxml:Attribute>
**                </udmxml:Attributes>
**                <udmxml:Children>
**                    <udmxml:Child xsi:type="udmxml:ChildCType" refId="4a59deb4063e23418e0da06a0e9e7c52:0" timestamp="1782696688575530" childFlags="0" groupName="partprotooccs" contentDefinitionType="UDMPartProtoOcc">
**                        <AdditionalIdList xsi:type="udmxml:AdditionalIdCType" xmlns="http://schemas.altair.com/AltairUDM" keyValue="Assembly" keyName="displayname" contentDefinitionType="UDMPartProtoOcc"/>
**                    </udmxml:Child>
**                </udmxml:Children>
**            </udmxml:Entity>
**        </udmxml:EntityCollection>
**        <udmxml:RelationCollection xsi:type="udmxml:RelationCollectionCType"/>
**        <udmxml:RootEntities xsi:type="udmxml:RootEntityCollectionCType">
**            <udmxml:ItemId>79405c8a0857f4419858702b3aba48b9:0</udmxml:ItemId>
**        </udmxml:RootEntities>
**    </UDM>
**</Altair_XML_Export>
