**
** ABAQUS Input Deck - Exported by NovaFEA AbaqusExporter
**
*HEADING
NovaFEA exported model
**
*NODE
         1,      1.00000,      1.00000,      1.00000
         2,      1.00000,      0.00000,      1.00000
         3,      1.00000,      1.00000,      0.00000
         4,      1.00000,      0.00000,      0.00000
         5,      0.00000,      1.00000,      1.00000
         6,      0.00000,      0.00000,      1.00000
         7,      0.00000,      1.00000,      0.00000
         8,      0.00000,      0.00000,      0.00000
*ELEMENT, TYPE=C3D8R
         1,         5,         6,         8,         7,         1,         2,         4,         3
*ELSET, ELSET=ELSET_PROP_1
         1
*SECTION CONTROLS, NAME=EC-1, HOURGLASS=ENHANCED, DISTORTION CONTROL=NO, ELEMENT DELETION=NO, ELEMENT CONVERSION=NO
1.00000,1.00000,1.00000,1.00000,1.00000
*SOLID SECTION, ELSET=ELSET_PROP_1, CONTROLS=EC-1, MATERIAL=Material-1
,
*NSET, NSET=load
         1,
         3,
         5,
         7
*NSET, NSET=Part-1_Part-1-1-2
         1,
         3,
         5,
         7
*NSET, NSET=fix
         2,
         4,
         6,
         8
*NSET, NSET=Part-1_Part-1-1-1
         2,
         4,
         6,
         8
*NSET, NSET=hgfix
         8
*NSET, NSET=Set-4
         4
*NSET, NSET=Set-3
         6
*NSET, NSET=Part-1-1_Set-1
         1,
         2,
         3,
         4,
         5,
         6,
         7,
         8
*MATERIAL, NAME=Material-1
*DENSITY
1000.00,0.0
*ELASTIC, TYPE=ISOTROPIC
2.10000e+07,0.300000,0.0
*AMPLITUDE, NAME=Amp-1
0.00000,0.00000,
1.00000,1.00000
*STEP, NLGEOM=NO
*STATIC
1.00000,1.00000
*NSET, NSET=BCSET_1
         8,
         6,
         4,
         2
*BOUNDARY
BCSET_1,2, ,0.00000
*NSET, NSET=BCSET_2
         6
*BOUNDARY
BCSET_2,1, ,0.00000
*NSET, NSET=BCSET_3
         4
*BOUNDARY
BCSET_3,3, ,0.00000
*NSET, NSET=BCSET_4
         8
*BOUNDARY
BCSET_4,1, ,0.00000
*NSET, NSET=LDSET_1
         7,
         5,
         3,
         1
*CLOAD, AMPLITUDE=Amp-1
LDSET_1,2,100.000
*OUTPUT, FIELD, VARIABLE=PRESELECT
*OUTPUT, HISTORY, VARIABLE=PRESELECT
*END STEP
