**
** ABAQUS Input Deck Generated by HyperMesh Version  : 2022.0.0.33
** Generated using HyperMesh-Abaqus Template Version : 2022.0.0.33
** Generated on 06-30-2026 at 14:17:05
**
**   Template:  ABAQUS/STANDARD 3D
**
*HEADING
T07: Distorted mesh cantilever beam bending (EAS robustness)
*PREPRINT,CONTACT=NO,ECHO=NO,HISTORY=NO,MODEL=NO
*NODE
         1,  1.0,  1.0,  8.0
         2,  1.0,  0.0,  8.0
         3,  1.2,  1.1,  7.0
         4,  1.2,  -0.1,  7.0
         5,  0.8,  1.0,  6.0
         6,  0.8,  0.0,  6.0
         7,  1.2,  1.1,  5.0
         8,  1.2,  -0.1,  5.0
         9,  0.8,  1.0,  4.0
        10,  0.8,  0.0,  4.0
        11,  1.2,  1.1,  3.0
        12,  1.2,  -0.1,  3.0
        13,  0.8,  1.0,  2.0
        14,  0.8,  0.0,  2.0
        15,  1.2,  1.1,  1.0
        16,  1.2,  -0.1,  1.0
        17,  1.0,  1.0,  0.0
        18,  1.0,  0.0,  0.0
        19,  0.0,  1.0,  8.0
        20,  0.0,  0.0,  8.0
** ... 16 like lines cut
**HW_COMPONENT     ID=2     COLOR=3     NAME=Part-1-1_Set-1     PROPERTY=Part-1-1_Set-1
*ELEMENT,TYPE=C3D8R
         1,        19,        20,        22,        21,         1,         2,         4,         3
         2,        21,        22,        24,        23,         3,         4,         6,         5
         3,        23,        24,        26,        25,         5,         6,         8,         7
         4,        25,        26,        28,        27,         7,         8,        10,         9
         5,        27,        28,        30,        29,         9,        10,        12,        11
         6,        29,        30,        32,        31,        11,        12,        14,        13
         7,        31,        32,        34,        33,        13,        14,        16,        15
         8,        33,        34,        36,        35,        15,        16,        18,        17
*ELSET, ELSET=HMprop_Part-1-1_Set-1
         1,         2,         3,         4,         5,         6,         7,         8
**HM_set_by_property     3          2
*SOLID SECTION, ELSET=HMprop_Part-1-1_Set-1, CONTROLS = EC-1, MATERIAL=Material-1
,
**HW_FORMULA_SET     ID=2
*NSET, NSET=Part-1-1_Set-1, GENERATE
         1,        36,         1
** Section: Section-1
**  
**
** ASSEMBLY
**
**  
**  
**HW_SET     ID=4
*NSET, NSET=fix
         1,         2,        19,        20
**HW_SET     ID=5
*NSET, NSET=load
        17,        18,        35,        36
**HW_SET     ID=1
*ELSET, ELSET=Part-1-1_Set-1, GENERATE
         1,         8,         1
**HW_SET     ID=3
*ELSET, ELSET=fix
         1,
** 
** MATERIALS
** 
**HMNAME MATS          1 Material-1     4
*MATERIAL, NAME=Material-1
*DENSITY
1000.0    ,0.0       
*ELASTIC, TYPE = ISOTROPIC
21000000.0,0.3       ,0.0       
**HMNAME PROPERTY          1 EC-1
** 
** ELEMENT CONTROLS
** 
*SECTION CONTROLS, NAME = EC-1, HOURGLASS = ENHANCED, ELEMENT DELETION = NO
1.0       ,1.0       
*AMPLITUDE, NAME =Amp-1
0.0       ,0.0       ,1.0       ,1.0       
**HMNAME CURVE          1 HM_Curve_Title_1
**HMNAME LOADSTEP          1 Step-1
*STEP, name=whatever
*MATRIX GENERATE, MASS, STIFFNESS
*MATRIX OUTPUT, MASS, STIFFNESS, FORMAT=MATRIX INPUT
*END STEP
*STEP, NAME = Step-1, NLGEOM = NO
*STATIC
1.0       ,1.0       ,1.0000E-05,1.0       
**HWNAME LOADCOL          1 HM_Load_Cols_1
**HWCOLOR LOADCOL          1     3
*BOUNDARY
fix,1,3,0.0
*CLOAD,AMPLITUDE = Amp-1
load,2,1000.0         
*OUTPUT, FIELD, VARIABLE = ALL
*OUTPUT, HISTORY, VARIABLE = ALL
*RESTART, WRITE, FREQUENCY =     0
*END STEP
*****
**<?xml version="1.0" encoding="utf-8"?>
**<Altair_XML_Export>
**    <UDM xmlns:SOAP-ENV="http://schemas.xmlsoap.org/soap/envelope/" xmlns:SOAP-ENC="http://schemas.xmlsoap.org/soap/encoding/" xmlns:xsi="http://www.w3.org/2001/XMLSchema-instance" xmlns:xsd="http://www.w3.org/2001/XMLSchema" xmlns:udmcfg="http://schemas.altair.com/AltairUDMRuntimeConfig" xmlns:udmxml="http://schemas.altair.com/AltairUDM" xmlns:importrules="http://schemas.altair.com/hsm/importru
**        <udmxml:EntityCollection xsi:type="udmxml:EntityCollectionCType">
**            <udmxml:Entity xsi:type="udmxml:AssemblyDMCType" displayName="HW_Assembly" contentDefinitionType="UDMAssemblyDM" id="98e41e779acdd049a5dfd0abb15234f2:0">
**                <udmxml:Children>
**                    <udmxml:Child xsi:type="udmxml:ChildCType" refId="b1dde049a94f07449603783d82a773ec:0" timestamp="1782800203032719" childFlags="0" groupName="boas" contentDefinitionType="UDMBOA"/>
**                </udmxml:Children>
**            </udmxml:Entity>
**            <udmxml:Entity xsi:type="udmxml:BOACType" displayName="hm0" contentDefinitionType="UDMBOA" id="b1dde049a94f07449603783d82a773ec:0">
**                <udmxml:Children>
**                    <udmxml:Child xsi:type="udmxml:ChildCType" refId="3e86651b64db814aba45a0eaa5a12eb2:0" timestamp="1782800203047981" childFlags="0" groupName="parts" contentDefinitionType="UDMPartProtoOcc">
**                        <AdditionalIdList xsi:type="udmxml:AdditionalIdCType" xmlns="http://schemas.altair.com/AltairUDM" keyValue="Model" keyName="displayname" contentDefinitionType="UDMPartProtoOcc"/>
**                    </udmxml:Child>
**                </udmxml:Children>
**            </udmxml:Entity>
**            <udmxml:Entity xsi:type="udmxml:PartCType" displayName="Part-1.p" contentDefinitionType="UDMPartProto" id="b606497598111f4a85b8ecdf45889aa7:0"/>
**            <udmxml:Entity xsi:type="udmxml:PartCType" displayName="Assembly.p" contentDefinitionType="UDMPartProto" id="40f5614f0cfd9e409f9156fd2d97551a:0">
**                <udmxml:Children>
**                    <udmxml:Child xsi:type="udmxml:ChildCType" refId="52881a2002ca444ba1699193cbf8f269:0" timestamp="1782800214713071" childFlags="0" groupName="partprotoinst" contentDefinitionType="UDMPartProtoInst"/>
**                </udmxml:Children>
**            </udmxml:Entity>
**            <udmxml:Entity xsi:type="udmxml:PartCType" displayName="Model.p" contentDefinitionType="UDMPartProto" id="f01fb75111c7974eae9ce5715e4dfb21:0">
**                <udmxml:Children>
**                    <udmxml:Child xsi:type="udmxml:ChildCType" refId="ec318c193835384ea8bb162e8371756d:0" timestamp="1782800214713071" childFlags="0" groupName="partprotoinst" contentDefinitionType="UDMPartProtoInst"/>
**                </udmxml:Children>
**            </udmxml:Entity>
**            <udmxml:Entity xsi:type="udmxml:PartCType" displayName="Part-1-1" contentDefinitionType="UDMPartProtoInst" id="52881a2002ca444ba1699193cbf8f269:0">
**                <udmxml:Attributes>
**                    <udmxml:Attribute xsi:type="udmxml:AttributeCType" valueutf8="1 0 0 0 0 1 0 0 0 0 1 0 0 0 0 1" type="string" name="trfmtx" displayName="Transformation matrix">1 0 0 0 0 1 0 0 0 0 1 0 0 0 0 1</udmxml:Attribute>
**                    <udmxml:Attribute xsi:type="udmxml:AttributeCType" valueutf8="true" type="boolean" name="trfmtxisrel" displayName="Is matrix relative?">true</udmxml:Attribute>
**                </udmxml:Attributes>
**                <udmxml:Children>
**                    <udmxml:Child xsi:type="udmxml:ChildCType" refId="b606497598111f4a85b8ecdf45889aa7:0" timestamp="1782800214713071" childFlags="0" groupName="partprotos" contentDefinitionType="UDMPartProto"/>
**                </udmxml:Children>
**                <TransformationMatrix xsi:type="udmxml:TransformationMatrixCType" xmlns="http://schemas.altair.com/AltairUDM" transformationMatrixIsRelative="true" transformationMatrix="1 0 0 0 0 1 0 0 0 0 1 0 0 0 0 1"/>
**            </udmxml:Entity>
**            <udmxml:Entity xsi:type="udmxml:PartCType" displayName="Assembly" contentDefinitionType="UDMPartProtoInst" id="ec318c193835384ea8bb162e8371756d:0">
**                <udmxml:Attributes>
**                    <udmxml:Attribute xsi:type="udmxml:AttributeCType" valueutf8="1 0 0 0 0 1 0 0 0 0 1 0 0 0 0 1" type="string" name="trfmtx" displayName="Transformation matrix">1 0 0 0 0 1 0 0 0 0 1 0 0 0 0 1</udmxml:Attribute>
**                    <udmxml:Attribute xsi:type="udmxml:AttributeCType" valueutf8="true" type="boolean" name="trfmtxisrel" displayName="Is matrix relative?">true</udmxml:Attribute>
**                </udmxml:Attributes>
**                <udmxml:Children>
**                    <udmxml:Child xsi:type="udmxml:ChildCType" refId="40f5614f0cfd9e409f9156fd2d97551a:0" timestamp="1782800214713071" childFlags="0" groupName="partprotos" contentDefinitionType="UDMPartProto"/>
**                </udmxml:Children>
**                <TransformationMatrix xsi:type="udmxml:TransformationMatrixCType" xmlns="http://schemas.altair.com/AltairUDM" transformationMatrixIsRelative="true" transformationMatrix="1 0 0 0 0 1 0 0 0 0 1 0 0 0 0 1"/>
**            </udmxml:Entity>
**            <udmxml:Entity xsi:type="udmxml:PartCType" protoInstanceRefId="52881a2002ca444ba1699193cbf8f269:0" prototypeRefId="b606497598111f4a85b8ecdf45889aa7:0" displayName="Part-1-1" contentDefinitionType="UDMPartProtoOcc" id="9485cd5df5500848b0b73fdda2ca618a:0">
**                <udmxml:Attributes>
**                    <udmxml:Attribute xsi:type="udmxml:AttributeCType" valueutf8="b606497598111f4a85b8ecdf45889aa7" type="string" name="protoref" displayName="Prototype reference">b606497598111f4a85b8ecdf45889aa7</udmxml:Attribute>
**                    <udmxml:Attribute xsi:type="udmxml:AttributeCType" valueutf8="52881a2002ca444ba1699193cbf8f269" type="string" name="protoinstanceref" displayName="Prototype Instance reference">52881a2002ca444ba1699193cbf8f269</udmxml:Attribute>
**                    <udmxml:Attribute xsi:type="udmxml:AttributeCType" valueutf8="Components(2)" type="string" name="EntitySelectionExp">Components(2)</udmxml:Attribute>
**                    <udmxml:Attribute xsi:type="udmxml:AttributeCType" valueutf8="2" type="string" name="SelectionExp">2</udmxml:Attribute>
**                    <udmxml:Attribute xsi:type="udmxml:AttributeCType" valueutf8="6" type="string" name="UdmxmlString_HmOccurrenceColor">6</udmxml:Attribute>
**                    <udmxml:Attribute xsi:type="udmxml:AttributeCType" valueutf8="6" type="string" name="UdmxmlString_HmOccurrenceId">6</udmxml:Attribute>
**                    <udmxml:Attribute xsi:type="udmxml:AttributeCType" valueutf8="65535" type="string" name="UdmxmlString_HmOccurrenceTrueColor">65535</udmxml:Attribute>
**                </udmxml:Attributes>
**            </udmxml:Entity>
**            <udmxml:Entity xsi:type="udmxml:PartCType" protoInstanceRefId="ec318c193835384ea8bb162e8371756d:0" prototypeRefId="40f5614f0cfd9e409f9156fd2d97551a:0" displayName="Assembly" contentDefinitionType="UDMPartProtoOcc" id="888d89c980fede45a63a4fbc4342ff7e:0">
**                <udmxml:Attributes>
**                    <udmxml:Attribute xsi:type="udmxml:AttributeCType" valueutf8="40f5614f0cfd9e409f9156fd2d97551a" type="string" name="protoref" displayName="Prototype reference">40f5614f0cfd9e409f9156fd2d97551a</udmxml:Attribute>
**                    <udmxml:Attribute xsi:type="udmxml:AttributeCType" valueutf8="ec318c193835384ea8bb162e8371756d" type="string" name="protoinstanceref" displayName="Prototype Instance reference">ec318c193835384ea8bb162e8371756d</udmxml:Attribute>
**                    <udmxml:Attribute xsi:type="udmxml:AttributeCType" valueutf8="5" type="string" name="UdmxmlString_HmOccurrenceColor">5</udmxml:Attribute>
**                    <udmxml:Attribute xsi:type="udmxml:AttributeCType" valueutf8="5" type="string" name="UdmxmlString_HmOccurrenceId">5</udmxml:Attribute>
**                    <udmxml:Attribute xsi:type="udmxml:AttributeCType" valueutf8="16711680" type="string" name="UdmxmlString_HmOccurrenceTrueColor">16711680</udmxml:Attribute>
**                </udmxml:Attributes>
**                <udmxml:Children>
**                    <udmxml:Child xsi:type="udmxml:ChildCType" refId="9485cd5df5500848b0b73fdda2ca618a:0" timestamp="1782800214713071" childFlags="0" groupName="partprotooccs" contentDefinitionType="UDMPartProtoOcc">
**                        <AdditionalIdList xsi:type="udmxml:AdditionalIdCType" xmlns="http://schemas.altair.com/AltairUDM" keyValue="Part-1-1" keyName="displayname" contentDefinitionType="UDMPartProtoOcc"/>
**                    </udmxml:Child>
**                </udmxml:Children>
**            </udmxml:Entity>
**            <udmxml:Entity xsi:type="udmxml:PartCType" prototypeRefId="f01fb75111c7974eae9ce5715e4dfb21:0" displayName="Model" contentDefinitionType="UDMPartProtoOcc" id="3e86651b64db814aba45a0eaa5a12eb2:0">
**                <udmxml:Attributes>
**                    <udmxml:Attribute xsi:type="udmxml:AttributeCType" valueutf8="f01fb75111c7974eae9ce5715e4dfb21" type="string" name="protoref" displayName="Prototype reference">f01fb75111c7974eae9ce5715e4dfb21</udmxml:Attribute>
**                    <udmxml:Attribute xsi:type="udmxml:AttributeCType" valueutf8="1" type="string" name="UdmxmlString_HmOccurrenceColor">1</udmxml:Attribute>
**                    <udmxml:Attribute xsi:type="udmxml:AttributeCType" valueutf8="2" type="string" name="UdmxmlString_HmOccurrenceId">2</udmxml:Attribute>
**                    <udmxml:Attribute xsi:type="udmxml:AttributeCType" valueutf8="65793" type="string" name="UdmxmlString_HmOccurrenceTrueColor">65793</udmxml:Attribute>
**                    <udmxml:Attribute xsi:type="udmxml:AttributeCType" valueutf8="true" type="boolean" name="pseudo root">true</udmxml:Attribute>
**                </udmxml:Attributes>
**                <udmxml:Children>
**                    <udmxml:Child xsi:type="udmxml:ChildCType" refId="888d89c980fede45a63a4fbc4342ff7e:0" timestamp="1782800214713071" childFlags="0" groupName="partprotooccs" contentDefinitionType="UDMPartProtoOcc">
**                        <AdditionalIdList xsi:type="udmxml:AdditionalIdCType" xmlns="http://schemas.altair.com/AltairUDM" keyValue="Assembly" keyName="displayname" contentDefinitionType="UDMPartProtoOcc"/>
**                    </udmxml:Child>
**                </udmxml:Children>
**            </udmxml:Entity>
**        </udmxml:EntityCollection>
**        <udmxml:RelationCollection xsi:type="udmxml:RelationCollectionCType"/>
**        <udmxml:RootEntities xsi:type="udmxml:RootEntityCollectionCType">
**            <udmxml:ItemId>98e41e779acdd049a5dfd0abb15234f2:0</udmxml:ItemId>
**        </udmxml:RootEntities>
**    </UDM>
**</Altair_XML_Export>
